CPDS_validation_cosim/Distribution/Bus11/IEEE34Bus/ieee34-1_VLL_Node_bal1.Txt

LINE-LINE VOLTAGES BY BUS & NODE

Bus       Node    VLN (kV)   Angle      pu     Base kV 

SOURCEBUS 1-2      72.45 /_   60.0      1.05    69.000
   -      2-3      72.45 /_  -60.0      1.05    69.000
   -      3-1      72.45 /_  180.0      1.05    69.000
800 ..... 1-2     26.145 /_   30.0      1.05    24.900
   -      2-3     26.145 /_  -90.0      1.05    24.900
   -      3-1     26.145 /_  150.0      1.05    24.900
802 ..... 1-2     26.113 /_   30.0    1.0487    24.900
   -      2-3     26.113 /_  -90.1    1.0487    24.900
   -      3-1     26.111 /_  149.9    1.0486    24.900
806 ..... 1-2     26.099 /_   29.9    1.0482    24.900
   -      2-3     26.099 /_  -90.1    1.0481    24.900
   -      3-1     26.096 /_  149.9     1.048    24.900
808 ..... 1-2      25.84 /_   29.3    1.0377    24.900
   -      2-3      25.84 /_  -90.7    1.0377    24.900
   -      3-1     25.817 /_  149.3    1.0368    24.900
812 ..... 1-2     25.535 /_   28.7    1.0255    24.900
   -      2-3     25.536 /_  -91.4    1.0256    24.900
   -      3-1      25.49 /_  148.6    1.0237    24.900
814 ..... 1-2     25.291 /_   28.2    1.0157    24.900
   -      2-3     25.295 /_  -92.0    1.0158    24.900
   -      3-1     25.227 /_  148.1    1.0131    24.900
814R .... 1-2     25.368 /_   28.1    1.0188    24.900
   -      2-3     25.372 /_  -91.9     1.019    24.900
   -      3-1     25.384 /_  148.1    1.0194    24.900
850 ..... 1-2     25.368 /_   28.1    1.0188    24.900
   -      2-3     25.372 /_  -91.9     1.019    24.900
   -      3-1     25.384 /_  148.1    1.0194    24.900
816 ..... 1-2     25.364 /_   28.0    1.0186    24.900
   -      2-3     25.368 /_  -91.9    1.0188    24.900
   -      3-1      25.38 /_  148.1    1.0193    24.900
824 ..... 1-2     25.232 /_   27.9    1.0133    24.900
   -      2-3     25.236 /_  -92.1    1.0135    24.900
   -      3-1      25.24 /_  147.9    1.0137    24.900
828 ..... 1-2     25.221 /_   27.8    1.0129    24.900
   -      2-3     25.225 /_  -92.1    1.0131    24.900
   -      3-1     25.229 /_  147.8    1.0132    24.900
830 ..... 1-2     24.957 /_   27.5    1.0023    24.900
   -      2-3     24.962 /_  -92.6    1.0025    24.900
   -      3-1     24.948 /_  147.4    1.0019    24.900
854 ..... 1-2     24.951 /_   27.5     1.002    24.900
   -      2-3     24.955 /_  -92.6    1.0022    24.900
   -      3-1     24.942 /_  147.4    1.0017    24.900
832 ..... 1-2     25.718 /_   26.8    1.0328    24.900
   -      2-3     25.729 /_  -93.3    1.0333    24.900
   -      3-1     25.683 /_  146.7    1.0314    24.900
858 ..... 1-2     25.693 /_   26.7    1.0319    24.900
   -      2-3     25.706 /_  -93.4    1.0324    24.900
   -      3-1     25.657 /_  146.6    1.0304    24.900
834 ..... 1-2     25.664 /_   26.6    1.0307    24.900
   -      2-3     25.678 /_  -93.5    1.0313    24.900
   -      3-1     25.626 /_  146.5    1.0292    24.900
860 ..... 1-2     25.661 /_   26.6    1.0306    24.900
   -      2-3     25.675 /_  -93.5    1.0311    24.900
   -      3-1     25.623 /_  146.5     1.029    24.900
842 ..... 1-2     25.663 /_   26.6    1.0306    24.900
   -      2-3     25.678 /_  -93.5    1.0312    24.900
   -      3-1     25.625 /_  146.5    1.0291    24.900
836 ..... 1-2      25.66 /_   26.6    1.0305    24.900
   -      2-3     25.674 /_  -93.5    1.0311    24.900
   -      3-1     25.622 /_  146.5     1.029    24.900
840 ..... 1-2     25.659 /_   26.6    1.0305    24.900
   -      2-3     25.674 /_  -93.5    1.0311    24.900
   -      3-1     25.621 /_  146.5     1.029    24.900
862 ..... 1-2      25.66 /_   26.6    1.0305    24.900
   -      2-3     25.674 /_  -93.5    1.0311    24.900
   -      3-1     25.622 /_  146.5     1.029    24.900
844 ..... 1-2     25.658 /_   26.6    1.0304    24.900
   -      2-3     25.673 /_  -93.5    1.0311    24.900
   -      3-1      25.62 /_  146.5    1.0289    24.900
846 ..... 1-2     25.664 /_   26.5    1.0307    24.900
   -      2-3     25.681 /_  -93.6    1.0314    24.900
   -      3-1     25.627 /_  146.4    1.0292    24.900
848 ..... 1-2     25.665 /_   26.5    1.0307    24.900
   -      2-3     25.682 /_  -93.6    1.0314    24.900
   -      3-1     25.628 /_  146.4    1.0292    24.900
852R .... 1-2     25.718 /_   26.8    1.0329    24.900
   -      2-3     25.729 /_  -93.3    1.0333    24.900
   -      3-1     25.683 /_  146.7    1.0314    24.900
888 ..... 1-2     4.1509 /_   25.3    0.9978     4.160
   -      2-3     4.1523 /_  -94.8   0.99815     4.160
   -      3-1     4.1461 /_  145.2   0.99667     4.160
852 ..... 1-2     24.495 /_   26.8   0.98372    24.900
   -      2-3     24.505 /_  -93.3   0.98414    24.900
   -      3-1     24.461 /_  146.7   0.98238    24.900
890 ..... 1-2     3.8413 /_   24.6    0.9234     4.160
   -      2-3     3.8323 /_  -95.8   0.92122     4.160
   -      3-1     3.8102 /_  144.5    0.9159     4.160
